118_CONV_CPU/IEEE118_33.raw
0,   100.00, 33, 0, 0, 60.00     / PSS(R)E-33.12   THU, FEB 09 2023  16:51
 08/25/93 UW ARCHIVE           100.0  1961 W IEEE 118 BUS TE

     1,'RIVERSDE  V2', 138.0000,1,   1,   1,   1,0.99028,  23.3545,1.05000,0.95000,1.10000,0.90000
     2,'POKAGON   V2', 138.0000,1,   1,   1,   1,0.99889,  23.8823,1.05000,0.95000,1.10000,0.90000
     3,'HICKRYCK  V2', 138.0000,1,   1,   1,   1,0.99594,  24.2042,1.05000,0.95000,1.10000,0.90000
     4,'NWCARLSL  V2', 138.0000,1,   1,   1,   1,1.01428,  27.5606,1.05000,0.95000,1.10000,0.90000
     5,'OLIVE     V2', 138.0000,1,   1,   1,   1,1.01402,  28.0038,1.05000,0.95000,1.10000,0.90000
     6,'KANKAKEE  V2', 138.0000,1,   1,   1,   1,1.00360,  25.5909,1.05000,0.95000,1.10000,0.90000
     7,'JACKSNRD  V2', 138.0000,1,   1,   1,   1,1.00600,  25.1578,1.05000,0.95000,1.10000,0.90000
     8,'OLIVE     V1', 345.0000,1,   1,   1,   1,1.01500,  32.4947,1.05000,0.95000,1.10000,0.90000
     9,'BEQUINE   V1', 345.0000,1,   1,   1,   1,1.04292,  39.7488,1.05000,0.95000,1.10000,0.90000
    10,'BREED     V1', 345.0000,1,   1,   1,   1,1.05000,  47.3298,1.05000,0.95000,1.10000,0.90000
    11,'SOUTHBND  V2', 138.0000,1,   1,   1,   1,1.00579,  25.2216,1.05000,0.95000,1.10000,0.90000
    12,'TWINBRCH  V2', 138.0000,1,   1,   1,   1,1.01145,  24.7655,1.05000,0.95000,1.10000,0.90000
    13,'CONCORD   V2', 138.0000,1,   1,   1,   1,0.99594,  23.7904,1.05000,0.95000,1.10000,0.90000
    14,'GOSHENJT  V2', 138.0000,1,   1,   1,   1,1.01095,  23.8660,1.05000,0.95000,1.10000,0.90000
    15,'FTWAYNE   V2', 138.0000,1,   1,   1,   1,1.01247,  22.8487,1.05000,0.95000,1.10000,0.90000
    16,'N. E.     V2', 138.0000,1,   1,   1,   1,1.00900,  24.2390,1.05000,0.95000,1.10000,0.90000
    17,'SORENSON  V2', 138.0000,1,   1,   1,   1,1.02401,  25.2237,1.05000,0.95000,1.10000,0.90000
    18,'MCKINLEY  V2', 138.0000,1,   1,   1,   1,1.01500,  23.0996,1.05000,0.95000,1.10000,0.90000
    19,'LINCOLN   V2', 138.0000,1,   1,   1,   1,1.01111,  22.5179,1.05000,0.95000,1.10000,0.90000
    20,'ADAMS     V2', 138.0000,1,   1,   1,   1,1.00284,  23.1689,1.05000,0.95000,1.10000,0.90000
    21,'JAY       V2', 138.0000,1,   1,   1,   1,1.00018,  24.4310,1.05000,0.95000,1.10000,0.90000
    22,'RANDOLPH  V2', 138.0000,1,   1,   1,   1,1.00545,  26.5077,1.05000,0.95000,1.10000,0.90000
    23,'COLLCRNR  V2', 138.0000,1,   1,   1,   1,1.02276,  30.6135,1.05000,0.95000,1.10000,0.90000
    24,'TRENTON   V2', 138.0000,1,   1,   1,   1,1.01500,  29.3242,1.05000,0.95000,1.10000,0.90000
    25,'TANNRSCK  V2', 138.0000,1,   1,   1,   1,1.05000,  38.2317,1.05000,0.95000,1.10000,0.90000
    26,'TANNRSCK  V1', 345.0000,1,   1,   1,   1,1.01500,  40.1053,1.05000,0.95000,1.10000,0.90000
    27,'MADISON   V2', 138.0000,1,   1,   1,   1,1.01094,  26.4417,1.05000,0.95000,1.10000,0.90000
    28,'MULLIN    V2', 138.0000,1,   1,   1,   1,1.00241,  25.0256,1.05000,0.95000,1.10000,0.90000
    29,'GRANT     V2', 138.0000,1,   1,   1,   1,1.00007,  24.2215,1.05000,0.95000,1.10000,0.90000
    30,'SORENSON  V1', 345.0000,1,   1,   1,   1,1.00448,  29.5710,1.05000,0.95000,1.10000,0.90000
    31,'DEERCRK   V2', 138.0000,1,   1,   1,   1,1.00191,  24.3338,1.05000,0.95000,1.10000,0.90000
    32,'DELAWARE  V2', 138.0000,1,   1,   1,   1,1.00868,  25.7752,1.05000,0.95000,1.10000,0.90000
    33,'HAVILAND  V2', 138.0000,1,   1,   2,   1,1.00991,  21.8448,1.05000,0.95000,1.10000,0.90000
    34,'ROCKHILL  V2', 138.0000,1,   1,   2,   1,1.01726,  21.8263,1.05000,0.95000,1.10000,0.90000
    35,'WESTLIMA  V2', 138.0000,1,   1,   2,   1,1.01509,  21.4357,1.05000,0.95000,1.10000,0.90000
    36,'STERLING  V2', 138.0000,1,   1,   2,   1,1.01500,  21.4293,1.05000,0.95000,1.10000,0.90000
    37,'EASTLIMA  V2', 138.0000,1,   1,   2,   1,1.02243,  22.2373,1.05000,0.95000,1.10000,0.90000
    38,'EASTLIMA  V1', 345.0000,1,   1,   2,   1,0.98870,  26.3651,1.05000,0.95000,1.10000,0.90000
    39,'NWLIBRTY  V2', 138.0000,1,   1,   2,   1,1.00400,  19.4552,1.05000,0.95000,1.10000,0.90000
    40,'WEST END  V2', 138.0000,1,   1,   2,   1,1.00337,  18.5928,1.05000,0.95000,1.10000,0.90000
    41,'S.TIFFIN  V2', 138.0000,1,   1,   2,   1,0.99399,  18.3549,1.05000,0.95000,1.10000,0.90000
    42,'HOWARD    V2', 138.0000,1,   1,   2,   1,0.99124,  20.1493,1.05000,0.95000,1.10000,0.90000
    43,'S.KENTON  V2', 138.0000,1,   1,   2,   1,1.00359,  20.8070,1.05000,0.95000,1.10000,0.90000
    44,'WMVERNON  V2', 138.0000,1,   1,   2,   1,0.99643,  21.5283,1.05000,0.95000,1.10000,0.90000
    45,'N.NEWARK  V2', 138.0000,1,   1,   2,   1,0.99107,  22.6385,1.05000,0.95000,1.10000,0.90000
    46,'W.LANCST  V2', 138.0000,1,   1,   2,   1,1.00000,  24.7505,1.05000,0.95000,1.10000,0.90000
    47,'CROOKSVL  V2', 138.0000,1,   1,   2,   1,1.01128,  26.1181,1.05000,0.95000,1.10000,0.90000
    48,'ZANESVLL  V2', 138.0000,1,   1,   2,   1,1.01233,  26.0742,1.05000,0.95000,1.10000,0.90000
    49,'PHILO     V2', 138.0000,1,   1,   2,   1,1.01500,  27.0121,1.05000,0.95000,1.10000,0.90000
    50,'WCAMBRDG  V2', 138.0000,1,   1,   2,   1,1.00595,  25.1332,1.05000,0.95000,1.10000,0.90000
    51,'NEWCMRST  V2', 138.0000,1,   1,   2,   1,0.99124,  22.7965,1.05000,0.95000,1.10000,0.90000
    52,'SCOSHOCT  V2', 138.0000,1,   1,   2,   1,0.98650,  21.9604,1.05000,0.95000,1.10000,0.90000
    53,'WOOSTER   V2', 138.0000,1,   1,   2,   1,0.98731,  21.1457,1.05000,0.95000,1.10000,0.90000
    54,'TORREY    V2', 138.0000,1,   1,   2,   1,1.00183,  21.9179,1.05000,0.95000,1.10000,0.90000
    55,'WAGENHLS  V2', 138.0000,1,   1,   2,   1,0.99995,  21.6890,1.05000,0.95000,1.10000,0.90000
    56,'SUNNYSDE  V2', 138.0000,1,   1,   2,   1,1.00022,  21.8422,1.05000,0.95000,1.10000,0.90000
    57,'WNWPHIL1  V2', 138.0000,1,   1,   2,   1,1.00016,  22.8771,1.05000,0.95000,1.10000,0.90000
    58,'WNWPHIL2  V2', 138.0000,1,   1,   2,   1,0.99318,  22.1344,1.05000,0.95000,1.10000,0.90000
    59,'TIDD      V2', 138.0000,1,   1,   2,   1,1.01500,  25.9088,1.05000,0.95000,1.10000,0.90000
    60,'SWKAMMER  V2', 138.0000,1,   1,   2,   1,1.01358,  29.2131,1.05000,0.95000,1.10000,0.90000
    61,'W.KAMMER  V2', 138.0000,1,   1,   2,   1,1.01500,  29.9854,1.05000,0.95000,1.10000,0.90000
    62,'NATRIUM   V2', 138.0000,1,   1,   2,   1,1.01500,  29.4726,1.05000,0.95000,1.10000,0.90000
    63,'TIDD      V1', 345.0000,1,   1,   2,   1,0.99121,  28.6501,1.05000,0.95000,1.10000,0.90000
    64,'KAMMER    V1', 345.0000,1,   1,   2,   1,0.99971,  30.1587,1.05000,0.95000,1.10000,0.90000
    65,'MUSKNGUM  V1', 345.0000,1,   1,   2,   1,1.00500,  32.6496,1.05000,0.95000,1.10000,0.90000
    66,'MUSKNGUM  V2', 345.0000,1,   1,   2,   1,1.05000,  33.1386,1.05000,0.95000,1.10000,0.90000
    67,'SUMMERFL  V2', 345.0000,1,   1,   2,   1,1.02848,  30.7491,1.05000,0.95000,1.10000,0.90000
    68,'SPORN     V1', 345.0000,1,   1,   2,   1,1.00628,  31.2356,1.05000,0.95000,1.10000,0.90000
    69,'SPORN     V2', 138.0000,1,   1,   2,   1,1.03500,  30.0000,1.05000,0.95000,1.10000,0.90000
    70,'PORTSMTH  V2', 138.0000,1,   1,   1,   1,1.01500,  25.7763,1.05000,0.95000,1.10000,0.90000
    71,'NPORTSMT  V2', 138.0000,1,   1,   1,   1,1.01552,  25.8620,1.05000,0.95000,1.10000,0.90000
    72,'HILLSBRO  V2', 138.0000,1,   1,   1,   1,1.01500,  26.9165,1.05000,0.95000,1.10000,0.90000
    73,'SARGENTS  V2', 138.0000,1,   1,   1,   1,1.01500,  25.7263,1.05000,0.95000,1.10000,0.90000
    74,'BELLEFNT  V2', 138.0000,1,   1,   1,   1,0.99207,  24.7289,1.05000,0.95000,1.10000,0.90000
    75,'STHPOINT  V2', 138.0000,1,   1,   1,   1,0.99300,  25.8432,1.05000,0.95000,1.10000,0.90000
    76,'DARRAH    V2', 138.0000,1,   1,   2,   1,0.96689,  25.6349,1.05000,0.95000,1.10000,0.90000
    77,'TURNER    V2', 138.0000,1,   1,   2,   1,1.00794,  31.1953,1.05000,0.95000,1.10000,0.90000
    78,'CHEMICAL  V2', 138.0000,1,   1,   2,   1,1.00607,  31.0217,1.05000,0.95000,1.10000,0.90000
    79,'CAPITLHL  V2', 138.0000,1,   1,   2,   1,1.01187,  31.4825,1.05000,0.95000,1.10000,0.90000
    80,'CABINCRK  V2', 138.0000,1,   1,   2,   1,1.04000,  34.0565,1.05000,0.95000,1.10000,0.90000
    81,'KANAWHA   V1', 345.0000,1,   1,   2,   1,0.99805,  32.2756,1.05000,0.95000,1.10000,0.90000
    82,'LOGAN     V2', 138.0000,1,   1,   3,   1,0.99665,  33.4409,1.05000,0.95000,1.10000,0.90000
    83,'SPRIGG    V2', 138.0000,1,   1,   3,   1,0.99488,  35.0412,1.05000,0.95000,1.10000,0.90000
    84,'BETSYLNE  V2', 138.0000,1,   1,   3,   1,0.99460,  38.1445,1.05000,0.95000,1.10000,0.90000
    85,'BEAVERCK  V2', 138.0000,1,   1,   3,   1,1.00146,  39.9282,1.05000,0.95000,1.10000,0.90000
    86,'HAZARD    V2', 138.0000,1,   1,   3,   1,0.99849,  38.8368,1.05000,0.95000,1.10000,0.90000
    87,'PINEVLLE  V3', 161.0000,1,   1,   3,   1,1.01500,  39.1852,1.05000,0.95000,1.10000,0.90000
    88,'FREMONT   V2', 138.0000,1,   1,   3,   1,0.99476,  43.5501,1.05000,0.95000,1.10000,0.90000
    89,'CLINCHRV  V2', 138.0000,1,   1,   3,   1,1.00500,  47.7805,1.05000,0.95000,1.10000,0.90000
    90,'HOLSTON   V2', 138.0000,1,   1,   3,   1,0.99772,  41.7813,1.05000,0.95000,1.10000,0.90000
    91,'HOLSTONT  V2', 138.0000,1,   1,   3,   1,1.00841,  41.3271,1.05000,0.95000,1.10000,0.90000
    92,'SALTVLLE  V2', 138.0000,1,   1,   3,   1,1.00075,  41.7656,1.05000,0.95000,1.10000,0.90000
    93,'TAZEWELL  V2', 138.0000,1,   1,   3,   1,0.99381,  38.4889,1.05000,0.95000,1.10000,0.90000
    94,'SWITCHBK  V2', 138.0000,1,   1,   3,   1,0.99571,  36.0490,1.05000,0.95000,1.10000,0.90000
    95,'CALDWELL  V2', 138.0000,1,   1,   3,   1,0.98726,  34.7399,1.05000,0.95000,1.10000,0.90000
    96,'BAILEYSV  V2', 138.0000,1,   1,   3,   1,0.99808,  34.0322,1.05000,0.95000,1.10000,0.90000
    97,'SUNDIAL   V2', 138.0000,1,   1,   2,   1,1.01479,  33.7318,1.05000,0.95000,1.10000,0.90000
    98,'BRADLEY   V2', 138.0000,1,   1,   2,   1,1.02447,  33.6595,1.05000,0.95000,1.10000,0.90000
    99,'HINTON    V2', 138.0000,1,   1,   2,   1,1.01000,  34.2740,1.05000,0.95000,1.10000,0.90000
   100,'GLEN LYN  V2', 138.0000,1,   1,   3,   1,1.01700,  35.9313,1.05000,0.95000,1.10000,0.90000
   101,'WYTHE     V2', 138.0000,1,   1,   3,   1,0.99769,  37.6321,1.05000,0.95000,1.10000,0.90000
   102,'SMYTHE    V2', 138.0000,1,   1,   3,   1,0.99859,  40.2984,1.05000,0.95000,1.10000,0.90000
   103,'CLAYTOR   V2', 138.0000,1,   1,   3,   1,1.01000,  32.8206,1.05000,0.95000,1.10000,0.90000
   104,'HANCOCK   V2', 138.0000,1,   1,   3,   1,0.99796,  30.2018,1.05000,0.95000,1.10000,0.90000
   105,'ROANOKE   V2', 138.0000,1,   1,   3,   1,0.99864,  29.1896,1.05000,0.95000,1.10000,0.90000
   106,'CLOVERDL  V2', 138.0000,1,   1,   3,   1,0.99233,  28.9952,1.05000,0.95000,1.10000,0.90000
   107,'REUSENS   V2', 138.0000,1,   1,   3,   1,0.99146,  26.5518,1.05000,0.95000,1.10000,0.90000
   108,'BLAINE    V2', 138.0000,1,   1,   3,   1,0.99983,  28.2678,1.05000,0.95000,1.10000,0.90000
   109,'FRANKLIN  V2', 138.0000,1,   1,   3,   1,1.00051,  27.9241,1.05000,0.95000,1.10000,0.90000
   110,'FIELDALE  V2', 138.0000,1,   1,   3,   1,1.00538,  27.3112,1.05000,0.95000,1.10000,0.90000
   111,'DANRIVER  V2', 138.0000,1,   1,   3,   1,1.01000,  28.8922,1.05000,0.95000,1.10000,0.90000
   112,'DANVILLE  V2', 138.0000,1,   1,   3,   1,1.01000,  24.6456,1.05000,0.95000,1.10000,0.90000
   113,'DEER CRK  V2', 138.0000,1,   1,   1,   1,1.01698,  25.2946,1.05000,0.95000,1.10000,0.90000
   114,'WMEDFORD  V2', 138.0000,1,   1,   1,   1,1.00545,  25.5911,1.05000,0.95000,1.10000,0.90000
   115,'MEDFORD   V2', 138.0000,1,   1,   1,   1,1.00525,  25.5998,1.05000,0.95000,1.10000,0.90000
   116,'KYGERCRK  V2', 138.0000,1,   1,   2,   1,1.01000,  30.8369,1.05000,0.95000,1.10000,0.90000
   117,'COREY     V2', 138.0000,1,   1,   1,   1,0.99764,  23.4357,1.05000,0.95000,1.10000,0.90000
   118,'WHUNTNGD  V2', 138.0000,1,   1,   2,   1,0.97516,  25.3492,1.05000,0.95000,1.10000,0.90000
  1000,'MACHBUS     ', 138.0000,3,   1,   2,   1,0.97520,  25.3500,1.05000,0.95000,1.10000,0.90000
  4000,'MACHBUS     ', 138.0000,2,   1,   3,   1,0.97520,  25.3500,1.05000,0.95000,1.10000,0.90000
  6000,'MACHBUS     ', 138.0000,2,   1,   4,   1,0.97520,  25.3500,1.05000,0.95000,1.10000,0.90000
  8000,'MACHBUS     ', 138.0000,2,   1,   5,   1,0.97520,  25.3500,1.05000,0.95000,1.10000,0.90000
 10000,'MACHBUS     ', 138.0000,2,   1,   6,   1,0.97520,  25.3500,1.05000,0.95000,1.10000,0.90000
 12000,'MACHBUS     ', 138.0000,2,   1,   7,   1,0.97520,  25.3500,1.05000,0.95000,1.10000,0.90000
 15000,'MACHBUS     ', 138.0000,2,   1,   8,   1,0.97520,  25.3500,1.05000,0.95000,1.10000,0.90000
 18000,'MACHBUS     ', 138.0000,2,   1,   9,   1,0.97520,  25.3500,1.05000,0.95000,1.10000,0.90000
 19000,'MACHBUS     ', 138.0000,2,   1,  10,   1,0.97520,  25.3500,1.05000,0.95000,1.10000,0.90000
 24000,'MACHBUS     ', 138.0000,2,   1,  11,   1,0.97520,  25.3500,1.05000,0.95000,1.10000,0.90000
 25000,'MACHBUS     ', 138.0000,2,   1,  12,   1,0.97520,  25.3500,1.05000,0.95000,1.10000,0.90000
 26000,'MACHBUS     ', 138.0000,2,   1,  13,   1,0.97520,  25.3500,1.05000,0.95000,1.10000,0.90000
 27000,'MACHBUS     ', 138.0000,2,   1,  14,   1,0.97520,  25.3500,1.05000,0.95000,1.10000,0.90000
 31000,'MACHBUS     ', 138.0000,2,   1,  15,   1,0.97520,  25.3500,1.05000,0.95000,1.10000,0.90000
 32000,'MACHBUS     ', 138.0000,2,   1,  16,   1,0.97520,  25.3500,1.05000,0.95000,1.10000,0.90000
 34000,'MACHBUS     ', 138.0000,2,   1,  17,   1,0.97520,  25.3500,1.05000,0.95000,1.10000,0.90000
 36000,'MACHBUS     ', 138.0000,2,   1,  18,   1,0.97520,  25.3500,1.05000,0.95000,1.10000,0.90000
 40000,'MACHBUS     ', 138.0000,2,   1,  19,   1,0.97520,  25.3500,1.05000,0.95000,1.10000,0.90000
 42000,'MACHBUS     ', 138.0000,2,   1,  20,   1,0.97520,  25.3500,1.05000,0.95000,1.10000,0.90000
 46000,'MACHBUS     ', 138.0000,2,   1,  21,   1,0.97520,  25.3500,1.05000,0.95000,1.10000,0.90000
 49000,'MACHBUS     ', 138.0000,2,   1,  22,   1,0.97520,  25.3500,1.05000,0.95000,1.10000,0.90000
 54000,'MACHBUS     ', 138.0000,2,   1,  23,   1,0.97520,  25.3500,1.05000,0.95000,1.10000,0.90000
 55000,'MACHBUS     ', 138.0000,2,   1,  24,   1,0.97520,  25.3500,1.05000,0.95000,1.10000,0.90000
 56000,'MACHBUS     ', 138.0000,2,   1,  25,   1,0.97520,  25.3500,1.05000,0.95000,1.10000,0.90000
 59000,'MACHBUS     ', 138.0000,2,   1,  26,   1,0.97520,  25.3500,1.05000,0.95000,1.10000,0.90000
 61000,'MACHBUS     ', 138.0000,2,   1,  27,   1,0.97520,  25.3500,1.05000,0.95000,1.10000,0.90000
 62000,'MACHBUS     ', 138.0000,2,   1,  28,   1,0.97520,  25.3500,1.05000,0.95000,1.10000,0.90000
 65000,'MACHBUS     ', 138.0000,2,   1,  29,   1,0.97520,  25.3500,1.05000,0.95000,1.10000,0.90000
 66000,'MACHBUS     ', 138.0000,2,   1,  30,   1,0.97520,  25.3500,1.05000,0.95000,1.10000,0.90000
 69000,'MACHBUS     ', 138.0000,2,   1,  31,   1,0.97520,  25.3500,1.05000,0.95000,1.10000,0.90000
 70000,'MACHBUS     ', 138.0000,2,   1,  32,   1,0.97520,  25.3500,1.05000,0.95000,1.10000,0.90000
 72000,'MACHBUS     ', 138.0000,2,   1,  33,   1,0.97520,  25.3500,1.05000,0.95000,1.10000,0.90000
 73000,'MACHBUS     ', 138.0000,2,   1,  34,   1,0.97520,  25.3500,1.05000,0.95000,1.10000,0.90000
 74000,'MACHBUS     ', 138.0000,2,   1,  35,   1,0.97520,  25.3500,1.05000,0.95000,1.10000,0.90000
 76000,'MACHBUS     ', 138.0000,2,   1,  36,   1,0.97520,  25.3500,1.05000,0.95000,1.10000,0.90000
 77000,'MACHBUS     ', 138.0000,2,   1,  37,   1,0.97520,  25.3500,1.05000,0.95000,1.10000,0.90000
 80000,'MACHBUS     ', 138.0000,2,   1,  38,   1,0.97520,  25.3500,1.05000,0.95000,1.10000,0.90000
 85000,'MACHBUS     ', 138.0000,2,   1,  39,   1,0.97520,  25.3500,1.05000,0.95000,1.10000,0.90000
 87000,'MACHBUS     ', 138.0000,2,   1,  40,   1,0.97520,  25.3500,1.05000,0.95000,1.10000,0.90000
 89000,'MACHBUS     ', 138.0000,2,   1,  41,   1,0.97520,  25.3500,1.05000,0.95000,1.10000,0.90000
 90000,'MACHBUS     ', 138.0000,2,   1,  42,   1,0.97520,  25.3500,1.05000,0.95000,1.10000,0.90000
 91000,'MACHBUS     ', 138.0000,2,   1,  43,   1,0.97520,  25.3500,1.05000,0.95000,1.10000,0.90000
 92000,'MACHBUS     ', 138.0000,2,   1,  44,   1,0.97520,  25.3500,1.05000,0.95000,1.10000,0.90000
 99000,'MACHBUS     ', 138.0000,2,   1,  45,   1,0.97520,  25.3500,1.05000,0.95000,1.10000,0.90000
100000,'MACHBUS     ', 138.0000,2,   1,  46,   1,0.97520,  25.3500,1.05000,0.95000,1.10000,0.90000
103000,'MACHBUS     ', 138.0000,2,   1,  47,   1,0.97520,  25.3500,1.05000,0.95000,1.10000,0.90000
104000,'MACHBUS     ', 138.0000,2,   1,  48,   1,0.97520,  25.3500,1.05000,0.95000,1.10000,0.90000
105000,'MACHBUS     ', 138.0000,2,   1,  49,   1,0.97520,  25.3500,1.05000,0.95000,1.10000,0.90000
107000,'MACHBUS     ', 138.0000,2,   1,  50,   1,0.97520,  25.3500,1.05000,0.95000,1.10000,0.90000
110000,'MACHBUS     ', 138.0000,2,   1,  51,   1,0.97520,  25.3500,1.05000,0.95000,1.10000,0.90000
111000,'MACHBUS     ', 138.0000,2,   1,  52,   1,0.97520,  25.3500,1.05000,0.95000,1.10000,0.90000
112000,'MACHBUS     ', 138.0000,2,   1,  53,   1,0.97520,  25.3500,1.05000,0.95000,1.10000,0.90000
113000,'MACHBUS     ', 138.0000,2,   1,  54,   1,0.97520,  25.3500,1.05000,0.95000,1.10000,0.90000
116000,'MACHBUS     ', 138.0000,2,   1,  55,   1,0.97520,  25.3500,1.05000,0.95000,1.10000,0.90000
0 / END OF BUS DATA, BEGIN LOAD DATA
     1,'BL',1,   1,   1,    45.900,    24.300,     0.000,     0.000,     0.000,     0.000,   1,1,0
     2,'BL',1,   1,   1,    18.000,     8.100,     0.000,     0.000,     0.000,     0.000,   1,1,0
     3,'BL',1,   1,   1,    35.100,     9.000,     0.000,     0.000,     0.000,     0.000,   1,1,0
     4,'BL',1,   1,   1,    35.100,    10.800,     0.000,     0.000,     0.000,     0.000,   1,1,0
     6,'BL',1,   1,   1,    46.800,    19.800,     0.000,     0.000,     0.000,     0.000,   1,1,0
     7,'BL',1,   1,   1,    17.100,     1.800,     0.000,     0.000,     0.000,     0.000,   1,1,0
     8,'BL',1,   1,   1,    25.200,     1.000,     0.000,     0.000,     0.000,     0.000,   1,1,0
    11,'BL',1,   1,   1,    63.000,    20.700,     0.000,     0.000,     0.000,     0.000,   1,1,0
    12,'BL',1,   1,   1,    42.300,     9.000,     0.000,     0.000,     0.000,     0.000,   1,1,0
    13,'BL',1,   1,   1,    30.600,    14.400,     0.000,     0.000,     0.000,     0.000,   1,1,0
    14,'BL',1,   1,   1,    12.600,     0.900,     0.000,     0.000,     0.000,     0.000,   1,1,0
    15,'BL',1,   1,   1,    81.000,    27.000,     0.000,     0.000,     0.000,     0.000,   1,1,0
    16,'BL',1,   1,   1,    22.500,     9.000,     0.000,     0.000,     0.000,     0.000,   1,1,0
    17,'BL',1,   1,   1,     9.900,     2.700,     0.000,     0.000,     0.000,     0.000,   1,1,0
    18,'BL',1,   1,   1,    54.000,    30.600,     0.000,     0.000,     0.000,     0.000,   1,1,0
    19,'BL',1,   1,   1,    40.500,    22.500,     0.000,     0.000,     0.000,     0.000,   1,1,0
    20,'BL',1,   1,   1,    16.200,     2.700,     0.000,     0.000,     0.000,     0.000,   1,1,0
    21,'BL',1,   1,   1,    12.600,     7.200,     0.000,     0.000,     0.000,     0.000,   1,1,0
    22,'BL',1,   1,   1,     9.000,     4.500,     0.000,     0.000,     0.000,     0.000,   1,1,0
    23,'BL',1,   1,   1,     6.300,     2.700,     0.000,     0.000,     0.000,     0.000,   1,1,0
    24,'BL',1,   1,   1,    11.700,     1.000,     0.000,     0.000,     0.000,     0.000,   1,1,0
    27,'BL',1,   1,   1,    63.900,    11.700,     0.000,     0.000,     0.000,     0.000,   1,1,0
    28,'BL',1,   1,   1,    15.300,     6.300,     0.000,     0.000,     0.000,     0.000,   1,1,0
    29,'BL',1,   1,   1,    21.600,     3.600,     0.000,     0.000,     0.000,     0.000,   1,1,0
    31,'BL',1,   1,   1,    38.700,    24.300,     0.000,     0.000,     0.000,     0.000,   1,1,0
    32,'BL',1,   1,   1,    53.100,    20.700,     0.000,     0.000,     0.000,     0.000,   1,1,0
    33,'BL',1,   1,   1,    20.700,     8.100,     0.000,     0.000,     0.000,     0.000,   1,1,0
    34,'BL',1,   1,   1,    53.100,    23.400,     0.000,     0.000,     0.000,     0.000,   1,1,0
    35,'BL',1,   1,   1,    29.700,     8.100,     0.000,     0.000,     0.000,     0.000,   1,1,0
    36,'BL',1,   1,   1,    27.900,    15.300,     0.000,     0.000,     0.000,     0.000,   1,1,0
    39,'BL',1,   1,   1,    24.300,     9.900,     0.000,     0.000,     0.000,     0.000,   1,1,0
    40,'BL',1,   1,   1,    59.400,    20.700,     0.000,     0.000,     0.000,     0.000,   1,1,0
    41,'BL',1,   1,   1,    33.300,     9.000,     0.000,     0.000,     0.000,     0.000,   1,1,0
    42,'BL',1,   1,   1,    86.400,    20.700,     0.000,     0.000,     0.000,     0.000,   1,1,0
    43,'BL',1,   1,   1,    16.200,     6.300,     0.000,     0.000,     0.000,     0.000,   1,1,0
    44,'BL',1,   1,   1,    14.400,     7.200,     0.000,     0.000,     0.000,     0.000,   1,1,0
    45,'BL',1,   1,   1,    47.700,    19.800,     0.000,     0.000,     0.000,     0.000,   1,1,0
    46,'BL',1,   1,   1,    25.200,     9.000,     0.000,     0.000,     0.000,     0.000,   1,1,0
    47,'BL',1,   1,   1,    30.600,     1.000,     0.000,     0.000,     0.000,     0.000,   1,1,0
    48,'BL',1,   1,   1,    18.000,     9.900,     0.000,     0.000,     0.000,     0.000,   1,1,0
    49,'BL',1,   1,   1,    78.300,    27.000,     0.000,     0.000,     0.000,     0.000,   1,1,0
    50,'BL',1,   1,   1,    15.300,     3.600,     0.000,     0.000,     0.000,     0.000,   1,1,0
    51,'BL',1,   1,   1,    15.300,     7.200,     0.000,     0.000,     0.000,     0.000,   1,1,0
    52,'BL',1,   1,   1,    16.200,     4.500,     0.000,     0.000,     0.000,     0.000,   1,1,0
    53,'BL',1,   1,   1,    20.700,     9.900,     0.000,     0.000,     0.000,     0.000,   1,1,0
    54,'BL',1,   1,   1,   101.700,    28.800,     0.000,     0.000,     0.000,     0.000,   1,1,0
    55,'BL',1,   1,   1,    56.700,    19.800,     0.000,     0.000,     0.000,     0.000,   1,1,0
    56,'BL',1,   1,   1,    75.600,    16.200,     0.000,     0.000,     0.000,     0.000,   1,1,0
    57,'BL',1,   1,   1,    10.800,     2.700,     0.000,     0.000,     0.000,     0.000,   1,1,0
    58,'BL',1,   1,   1,    10.800,     2.700,     0.000,     0.000,     0.000,     0.000,   1,1,0
    59,'BL',1,   1,   1,   249.300,   101.700,     0.000,     0.000,     0.000,     0.000,   1,1,0
    60,'BL',1,   1,   1,    70.200,     2.700,     0.000,     0.000,     0.000,     0.000,   1,1,0
    62,'BL',1,   1,   1,    69.300,    12.600,     0.000,     0.000,     0.000,     0.000,   1,1,0
    66,'BL',1,   1,   1,    35.100,    16.200,     0.000,     0.000,     0.000,     0.000,   1,1,0
    67,'BL',1,   1,   1,    25.200,     6.300,     0.000,     0.000,     0.000,     0.000,   1,1,0
    70,'BL',1,   1,   1,    59.400,    18.000,     0.000,     0.000,     0.000,     0.000,   1,1,0
    72,'BL',1,   1,   1,    10.800,     1.000,     0.000,     0.000,     0.000,     0.000,   1,1,0
    73,'BL',1,   1,   1,     5.400,     1.000,     0.000,     0.000,     0.000,     0.000,   1,1,0
    74,'BL',1,   1,   1,    61.200,    24.300,     0.000,     0.000,     0.000,     0.000,   1,1,0
    75,'BL',1,   1,   1,    42.300,     9.900,     0.000,     0.000,     0.000,     0.000,   1,1,0
    76,'BL',1,   1,   1,    61.200,    32.400,     0.000,     0.000,     0.000,     0.000,   1,1,0
    77,'BL',1,   1,   1,    54.900,    25.200,     0.000,     0.000,     0.000,     0.000,   1,1,0
    78,'BL',1,   1,   1,    63.900,    23.400,     0.000,     0.000,     0.000,     0.000,   1,1,0
    79,'BL',1,   1,   1,    35.100,    28.800,     0.000,     0.000,     0.000,     0.000,   1,1,0
    80,'BL',1,   1,   1,   117.000,    23.400,     0.000,     0.000,     0.000,     0.000,   1,1,0
    82,'BL',1,   1,   1,    48.600,    24.300,     0.000,     0.000,     0.000,     0.000,   1,1,0
    83,'BL',1,   1,   1,    18.000,     9.000,     0.000,     0.000,     0.000,     0.000,   1,1,0
    84,'BL',1,   1,   1,     9.900,     6.300,     0.000,     0.000,     0.000,     0.000,   1,1,0
    85,'BL',1,   1,   1,    21.600,    13.500,     0.000,     0.000,     0.000,     0.000,   1,1,0
    86,'BL',1,   1,   1,    18.900,     9.000,     0.000,     0.000,     0.000,     0.000,   1,1,0
    88,'BL',1,   1,   1,    43.200,     9.000,     0.000,     0.000,     0.000,     0.000,   1,1,0
    90,'BL',1,   1,   1,   146.700,    37.800,     0.000,     0.000,     0.000,     0.000,   1,1,0
    91,'BL',1,   1,   1,     9.000,     1.000,     0.000,     0.000,     0.000,     0.000,   1,1,0
    92,'BL',1,   1,   1,    58.500,     9.000,     0.000,     0.000,     0.000,     0.000,   1,1,0
    93,'BL',1,   1,   1,    10.800,     6.300,     0.000,     0.000,     0.000,     0.000,   1,1,0
    94,'BL',1,   1,   1,    27.000,    14.400,     0.000,     0.000,     0.000,     0.000,   1,1,0
    95,'BL',1,   1,   1,    37.800,    27.900,     0.000,     0.000,     0.000,     0.000,   1,1,0
    96,'BL',1,   1,   1,    34.200,    13.500,     0.000,     0.000,     0.000,     0.000,   1,1,0
    97,'BL',1,   1,   1,    13.500,     8.100,     0.000,     0.000,     0.000,     0.000,   1,1,0
    98,'BL',1,   1,   1,    30.600,     7.200,     0.000,     0.000,     0.000,     0.000,   1,1,0
    99,'BL',1,   1,   1,    37.800,     1.000,     0.000,     0.000,     0.000,     0.000,   1,1,0
   100,'BL',1,   1,   1,    33.300,    16.200,     0.000,     0.000,     0.000,     0.000,   1,1,0
   101,'BL',1,   1,   1,    19.800,    13.500,     0.000,     0.000,     0.000,     0.000,   1,1,0
   102,'BL',1,   1,   1,     4.500,     2.700,     0.000,     0.000,     0.000,     0.000,   1,1,0
   103,'BL',1,   1,   1,    20.700,    14.400,     0.000,     0.000,     0.000,     0.000,   1,1,0
   104,'BL',1,   1,   1,    34.200,    22.500,     0.000,     0.000,     0.000,     0.000,   1,1,0
   105,'BL',1,   1,   1,    27.900,    23.400,     0.000,     0.000,     0.000,     0.000,   1,1,0
   106,'BL',1,   1,   1,    38.700,    14.400,     0.000,     0.000,     0.000,     0.000,   1,1,0
   107,'BL',1,   1,   1,    45.000,    10.800,     0.000,     0.000,     0.000,     0.000,   1,1,0
   108,'BL',1,   1,   1,     1.800,     0.900,     0.000,     0.000,     0.000,     0.000,   1,1,0
   109,'BL',1,   1,   1,     7.200,     2.700,     0.000,     0.000,     0.000,     0.000,   1,1,0
   110,'BL',1,   1,   1,    35.100,    27.000,     0.000,     0.000,     0.000,     0.000,   1,1,0
   112,'BL',1,   1,   1,    61.200,    11.700,     0.000,     0.000,     0.000,     0.000,   1,1,0
   113,'BL',1,   1,   1,     5.400,     1.000,     0.000,     0.000,     0.000,     0.000,   1,1,0
   114,'BL',1,   1,   1,     7.200,     2.700,     0.000,     0.000,     0.000,     0.000,   1,1,0
   115,'BL',1,   1,   1,    19.800,     6.300,     0.000,     0.000,     0.000,     0.000,   1,1,0
   116,'BL',1,   1,   1,   165.600,     1.000,     0.000,     0.000,     0.000,     0.000,   1,1,0
   117,'BL',1,   1,   1,    18.000,     7.200,     0.000,     0.000,     0.000,     0.000,   1,1,0
   118,'BL',1,   1,   1,    29.700,    13.500,     0.000,     0.000,     0.000,     0.000,   1,1,0
0 / END OF LOAD DATA, BEGIN FIXED SHUNT DATA
     5,'1 ',1,     0.000,   -40.000
    34,'1 ',1,     0.000,    14.000
    37,'1 ',1,     0.000,   -25.000
    42,'1 ',1,     0.000,    25.000
    44,'1 ',1,     0.000,    10.000
    45,'1 ',1,     0.000,    10.000
    46,'1 ',1,     0.000,    10.000
    48,'1 ',1,     0.000,    15.000
    74,'1 ',1,     0.000,    12.000
    79,'1 ',1,     0.000,    20.000
    82,'1 ',1,     0.000,    20.000
    83,'1 ',1,     0.000,    10.000
   105,'1 ',1,     0.000,    20.000
   107,'1 ',1,     0.000,     6.000
   110,'1 ',1,     0.000,     6.000
0 / END OF FIXED SHUNT DATA, BEGIN GENERATOR DATA
  1000,'1 ',     0.000,    15.000,    15.000,   -15.000,1.01500,     0,   100.000, 0.00000E+0, 2.30000E-1, 0.00000E+0, 0.00000E+0,1.00000,1,  100.0,  9999.000,     0.000,   1,1.0000
  4000,'1 ',     0.000,    30.000,    30.000,   -30.000,1.01500,     0,   100.000, 0.00000E+0, 2.30000E-1, 0.00000E+0, 0.00000E+0,1.00000,1,  100.0,  9999.000,  -100.000,   1,1.0000
  6000,'1 ',     0.000,     0.000,     0.000,   -50.000,1.01500,     0,   100.000, 0.00000E+0, 2.30000E-1, 0.00000E+0, 0.00000E+0,1.00000,1,  100.0,  9999.000,     0.000,   1,1.0000
  8000,'1 ',     0.000,   -59.822,   100.000,  -100.000,1.01500,     0,   100.000, 0.00000E+0, 2.30000E-1, 0.00000E+0, 0.00000E+0,1.00000,1,  100.0,  9999.000,  -100.000,   1,1.0000
 10000,'1 ',   450.000,   -51.042,   200.000,  -147.000,1.05000,     0,   500.000, 0.00000E+0, 2.30000E-1, 0.00000E+0, 0.00000E+0,1.00000,1,  100.0,   600.000,     0.000,   1,1.0000
 12000,'1 ',    85.000,    80.000,    80.000,   -80.000,1.01500,     0,   100.000, 0.00000E+0, 2.30000E-1, 0.00000E+0, 0.00000E+0,1.00000,1,  100.0,   100.000,     0.000,   1,1.0000
 15000,'1 ',     0.000,    30.000,    30.000,   -30.000,1.01500,     0,   100.000, 0.00000E+0, 2.30000E-1, 0.00000E+0, 0.00000E+0,1.00000,1,  100.0,  9999.000,     0.000,   1,1.0000
 18000,'1 ',     0.000,    34.279,    50.000,   -50.000,1.01500,     0,   100.000, 0.00000E+0, 2.30000E-1, 0.00000E+0, 0.00000E+0,1.00000,1,  100.0,  9999.000,     0.000,   1,1.0000
 19000,'1 ',     0.000,    20.000,    20.000,   -20.000,1.01500,     0,   100.000, 0.00000E+0, 2.30000E-1, 0.00000E+0, 0.00000E+0,1.00000,1,  100.0,  9999.000,     0.000,   1,1.0000
 24000,'1 ',     0.000,   -15.951,    20.000,   -20.000,1.01500,     0,   100.000, 0.00000E+0, 2.30000E-1, 0.00000E+0, 0.00000E+0,1.00000,1,  100.0,  9999.000,  -100.000,   1,1.0000
 25000,'1 ',   220.000,    -0.553,   210.000,  -210.000,1.05000,     0,   500.000, 0.00000E+0, 2.30000E-1, 0.00000E+0, 0.00000E+0,1.00000,1,  100.0,   250.000,     0.000,   1,1.0000
 26000,'1 ',   314.000,   -20.431,  1000.000, -1000.000,1.01500,     0,   500.000, 0.00000E+0, 2.30000E-1, 0.00000E+0, 0.00000E+0,1.00000,1,  100.0,   350.000,     0.000,   1,1.0000
 27000,'1 ',     0.000,    20.000,    20.000,   -20.000,1.01500,     0,   100.000, 0.00000E+0, 2.30000E-1, 0.00000E+0, 0.00000E+0,1.00000,1,  100.0,  9999.000,  -100.000,   1,1.0000
 31000,'1 ',     7.000,    15.000,    15.000,   -15.000,1.01500,     0,   100.000, 0.00000E+0, 2.30000E-1, 0.00000E+0, 0.00000E+0,1.00000,1,  100.0,    25.000,     0.000,   1,1.0000
 32000,'1 ',     0.000,    20.000,    20.000,   -20.000,1.01500,     0,   100.000, 0.00000E+0, 2.30000E-1, 0.00000E+0, 0.00000E+0,1.00000,1,  100.0,  9999.000,     0.000,   1,1.0000
 34000,'1 ',     0.000,   -20.000,    20.000,   -20.000,1.01500,     0,   100.000, 0.00000E+0, 2.30000E-1, 0.00000E+0, 0.00000E+0,1.00000,1,  100.0,  9999.000,     0.000,   1,1.0000
 36000,'1 ',     0.000,    14.428,    20.000,   -20.000,1.01500,     0,   100.000, 0.00000E+0, 2.30000E-1, 0.00000E+0, 0.00000E+0,1.00000,1,  100.0,  9999.000,     0.000,   1,1.0000
 40000,'1 ',     0.000,    50.000,    50.000,   -50.000,1.01500,     0,   100.000, 0.00000E+0, 2.30000E-1, 0.00000E+0, 0.00000E+0,1.00000,1,  100.0,  9999.000,  -100.000,   1,1.0000
 42000,'1 ',     0.000,   100.000,   100.000,  -100.000,1.01500,     0,   100.000, 0.00000E+0, 2.30000E-1, 0.00000E+0, 0.00000E+0,1.00000,1,  100.0,  9999.000,  -100.000,   1,1.0000
 46000,'1 ',    19.000,   -12.342,    15.000,   -15.000,1.00000,     0,   100.000, 0.00000E+0, 2.30000E-1, 0.00000E+0, 0.00000E+0,1.00000,1,  100.0,    25.000,     0.000,   1,1.0000
 49000,'1 ',   204.000,  -154.540,   210.000,  -210.000,1.01500,     0,   500.000, 0.00000E+0, 2.30000E-1, 0.00000E+0, 0.00000E+0,1.00000,1,  100.0,   250.000,     0.000,   1,1.0000
 54000,'1 ',    48.000,    50.000,    50.000,   -50.000,1.01500,     0,   100.000, 0.00000E+0, 2.30000E-1, 0.00000E+0, 0.00000E+0,1.00000,1,  100.0,    60.000,     0.000,   1,1.0000
 55000,'1 ',     0.000,    20.000,    20.000,   -20.000,1.01500,     0,   100.000, 0.00000E+0, 2.30000E-1, 0.00000E+0, 0.00000E+0,1.00000,1,  100.0,  9999.000,     0.000,   1,1.0000
 56000,'1 ',     0.000,    15.000,    15.000,   -15.000,1.01500,     0,   100.000, 0.00000E+0, 2.30000E-1, 0.00000E+0, 0.00000E+0,1.00000,1,  100.0,  9999.000,     0.000,   1,1.0000
 59000,'1 ',   155.000,    72.053,   160.000,  -160.000,1.01500,     0,   500.000, 0.00000E+0, 2.30000E-1, 0.00000E+0, 0.00000E+0,1.00000,1,  100.0,   200.000,     0.000,   1,1.0000
 61000,'1 ',   160.000,   -23.687,   160.000,  -160.000,1.01500,     0,   500.000, 0.00000E+0, 2.30000E-1, 0.00000E+0, 0.00000E+0,1.00000,1,  100.0,   200.000,     0.000,   1,1.0000
 62000,'1 ',     0.000,    -2.033,    20.000,   -20.000,1.01500,     0,   100.000, 0.00000E+0, 2.30000E-1, 0.00000E+0, 0.00000E+0,1.00000,1,  100.0,  9999.000,     0.000,   1,1.0000
 65000,'1 ',   391.000,   -29.413,   200.000,   -67.000,1.00500,     0,   500.000, 0.00000E+0, 2.30000E-1, 0.00000E+0, 0.00000E+0,1.00000,1,  100.0,   450.000,     0.000,   1,1.0000
 66000,'1 ',   392.000,     3.009,   200.000,   -67.000,1.05000,     0,   500.000, 0.00000E+0, 2.30000E-1, 0.00000E+0, 0.00000E+0,1.00000,1,  100.0,   450.000,     0.000,   1,1.0000
 69000,'1 ',    85.984,   -80.951,   160.000,  -160.000,1.03500,     0,  1000.000, 0.00000E+0, 2.30000E-1, 0.00000E+0, 0.00000E+0,1.00000,1,  100.0,   200.000,     0.000,   1,1.0000
 70000,'1 ',     0.000,    30.322,    32.000,   -10.000,1.01500,     0,   100.000, 0.00000E+0, 2.30000E-1, 0.00000E+0, 0.00000E+0,1.00000,1,  100.0,  9999.000,     0.000,   1,1.0000
 72000,'1 ',     0.000,    -0.834,    20.000,   -20.000,1.01500,     0,   100.000, 0.00000E+0, 2.30000E-1, 0.00000E+0, 0.00000E+0,1.00000,1,  100.0,  9999.000,  -100.000,   1,1.0000
 73000,'1 ',     0.000,     0.269,    10.000,   -10.000,1.01500,     0,   100.000, 0.00000E+0, 2.30000E-1, 0.00000E+0, 0.00000E+0,1.00000,1,  100.0,  9999.000,  -100.000,   1,1.0000
 74000,'1 ',     0.000,    10.000,    10.000,   -10.000,1.01000,     0,   100.000, 0.00000E+0, 2.30000E-1, 0.00000E+0, 0.00000E+0,1.00000,1,  100.0,  9999.000,     0.000,   1,1.0000
 76000,'1 ',     0.000,    10.000,    10.000,   -10.000,1.01000,     0,   100.000, 0.00000E+0, 2.30000E-1, 0.00000E+0, 0.00000E+0,1.00000,1,  100.0,  9999.000,     0.000,   1,1.0000
 77000,'1 ',     0.000,   -20.000,    20.000,   -20.000,1.00600,     0,   100.000, 0.00000E+0, 2.30000E-1, 0.00000E+0, 0.00000E+0,1.00000,1,  100.0,  9999.000,     0.000,   1,1.0000
 80000,'1 ',   477.000,    78.435,   280.000,  -165.000,1.04000,     0,   500.000, 0.00000E+0, 2.30000E-1, 0.00000E+0, 0.00000E+0,1.00000,1,  100.0,   600.000,     0.000,   1,1.0000
 85000,'1 ',     0.000,    20.000,    20.000,   -20.000,1.01500,     0,   100.000, 0.00000E+0, 2.30000E-1, 0.00000E+0, 0.00000E+0,1.00000,1,  100.0,  9999.000,     0.000,   1,1.0000
 87000,'1 ',     4.000,     5.249,    15.000,   -15.000,1.01500,     0,   100.000, 0.00000E+0, 2.30000E-1, 0.00000E+0, 0.00000E+0,1.00000,1,  100.0,    25.000,     0.000,   1,1.0000
 89000,'1 ',   607.000,   -71.501,   300.000,  -210.000,1.00500,     0,  1000.000, 0.00000E+0, 2.30000E-1, 0.00000E+0, 0.00000E+0,1.00000,1,  100.0,   800.000,     0.000,   1,1.0000
 90000,'1 ',     0.000,    50.000,    50.000,   -50.000,1.01500,     0,   100.000, 0.00000E+0, 2.30000E-1, 0.00000E+0, 0.00000E+0,1.00000,1,  100.0,  9999.000,  -100.000,   1,1.0000
 91000,'1 ',     0.000,    20.000,    20.000,   -20.000,1.01500,     0,   100.000, 0.00000E+0, 2.30000E-1, 0.00000E+0, 0.00000E+0,1.00000,1,  100.0,  9999.000,  -100.000,   1,1.0000
 92000,'1 ',     0.000,    10.000,    10.000,   -10.000,1.01500,     0,   100.000, 0.00000E+0, 2.30000E-1, 0.00000E+0, 0.00000E+0,1.00000,1,  100.0,  9999.000,     0.000,   1,1.0000
 99000,'1 ',     0.000,   -17.392,    20.000,   -20.000,1.01000,     0,   100.000, 0.00000E+0, 2.30000E-1, 0.00000E+0, 0.00000E+0,1.00000,1,  100.0,  9999.000,  -100.000,   1,1.0000
100000,'1 ',   252.000,    45.453,   155.000,   -50.000,1.01700,     0,   500.000, 0.00000E+0, 2.30000E-1, 0.00000E+0, 0.00000E+0,1.00000,1,  100.0,   300.000,     0.000,   1,1.0000
103000,'1 ',    40.000,    14.568,    40.000,   -40.000,1.01000,     0,   100.000, 0.00000E+0, 2.30000E-1, 0.00000E+0, 0.00000E+0,1.00000,1,  100.0,    50.000,     0.000,   1,1.0000
104000,'1 ',     0.000,    10.000,    10.000,   -10.000,1.01000,     0,   100.000, 0.00000E+0, 2.30000E-1, 0.00000E+0, 0.00000E+0,1.00000,1,  100.0,  9999.000,     0.000,   1,1.0000
105000,'1 ',     0.000,    10.000,    10.000,   -10.000,1.01000,     0,   100.000, 0.00000E+0, 2.30000E-1, 0.00000E+0, 0.00000E+0,1.00000,1,  100.0,  9999.000,     0.000,   1,1.0000
107000,'1 ',     0.000,    10.000,    10.000,   -10.000,1.01000,     0,   100.000, 0.00000E+0, 2.30000E-1, 0.00000E+0, 0.00000E+0,1.00000,1,  100.0,  9999.000,  -100.000,   1,1.0000
110000,'1 ',     0.000,    10.000,    10.000,   -10.000,1.01000,     0,   100.000, 0.00000E+0, 2.30000E-1, 0.00000E+0, 0.00000E+0,1.00000,1,  100.0,  9999.000,     0.000,   1,1.0000
111000,'1 ',    36.000,    -4.823,    40.000,   -40.000,1.01000,     0,   100.000, 0.00000E+0, 2.30000E-1, 0.00000E+0, 0.00000E+0,1.00000,1,  100.0,    50.000,     0.000,   1,1.0000
112000,'1 ',     0.000,    41.159,    50.000,   -50.000,1.01000,     0,   100.000, 0.00000E+0, 2.30000E-1, 0.00000E+0, 0.00000E+0,1.00000,1,  100.0,  9999.000,  -100.000,   1,1.0000
113000,'1 ',     0.000,   -20.000,    20.000,   -20.000,1.01000,     0,   100.000, 0.00000E+0, 2.30000E-1, 0.00000E+0, 0.00000E+0,1.00000,1,  100.0,  9999.000,  -100.000,   1,1.0000
116000,'1 ',     0.000,    99.856,   100.000,  -100.000,1.01000,     0,   250.000, 0.00000E+0, 2.30000E-1, 0.00000E+0, 0.00000E+0,1.00000,1,  100.0,  9999.000,  -200.000,   1,1.0000
0 / END OF GENERATOR DATA, BEGIN BRANCH DATA
     1,     2,'1 ', 3.03000E-2, 9.99000E-2,   0.02540,    0.00,    0.00,    0.00,  0.00000,  0.00000,  0.00000,  0.00000,1,1,   0.00,   1,1.0000
     1,     3,'1 ', 1.29000E-2, 4.24000E-2,   0.01082,    0.00,    0.00,    0.00,  0.00000,  0.00000,  0.00000,  0.00000,1,1,   0.00,   1,1.0000
     1,  1000,'1 ', 0.00000E+0, 2.50000E-2,   0.00000,    0.00,    0.00,    0.00,  0.00000,  0.00000,  0.00000,  0.00000,1,1,   0.00,   1,1.0000
     2,    12,'1 ', 1.87000E-2, 6.16000E-2,   0.01572,    0.00,    0.00,    0.00,  0.00000,  0.00000,  0.00000,  0.00000,1,1,   0.00,   1,1.0000
     3,     5,'1 ', 2.41000E-2, 1.08000E-1,   0.02840,    0.00,    0.00,    0.00,  0.00000,  0.00000,  0.00000,  0.00000,1,1,   0.00,   1,1.0000
     3,    12,'1 ', 4.84000E-2, 1.60000E-1,   0.04060,    0.00,    0.00,    0.00,  0.00000,  0.00000,  0.00000,  0.00000,1,1,   0.00,   1,1.0000
     4,     5,'1 ', 1.76000E-3, 7.98000E-3,   0.00210,    0.00,    0.00,    0.00,  0.00000,  0.00000,  0.00000,  0.00000,1,1,   0.00,   1,1.0000
     4,    11,'1 ', 2.09000E-2, 6.88000E-2,   0.01748,    0.00,    0.00,    0.00,  0.00000,  0.00000,  0.00000,  0.00000,1,1,   0.00,   1,1.0000
     4,  4000,'1 ', 0.00000E+0, 2.50000E-2,   0.00000,    0.00,    0.00,    0.00,  0.00000,  0.00000,  0.00000,  0.00000,1,1,   0.00,   1,1.0000
     5,     6,'1 ', 1.19000E-2, 5.40000E-2,   0.01426,    0.00,    0.00,    0.00,  0.00000,  0.00000,  0.00000,  0.00000,1,1,   0.00,   1,1.0000
     5,    11,'1 ', 2.03000E-2, 6.82000E-2,   0.01738,    0.00,    0.00,    0.00,  0.00000,  0.00000,  0.00000,  0.00000,1,1,   0.00,   1,1.0000
     6,     7,'1 ', 4.59000E-3, 2.08000E-2,   0.00550,    0.00,    0.00,    0.00,  0.00000,  0.00000,  0.00000,  0.00000,1,1,   0.00,   1,1.0000
     6,  6000,'1 ', 0.00000E+0, 2.50000E-2,   0.00000,    0.00,    0.00,    0.00,  0.00000,  0.00000,  0.00000,  0.00000,1,1,   0.00,   1,1.0000
     7,    12,'1 ', 8.62000E-3, 3.40000E-2,   0.00874,    0.00,    0.00,    0.00,  0.00000,  0.00000,  0.00000,  0.00000,1,1,   0.00,   1,1.0000
     8,     9,'1 ', 2.44000E-3, 3.05000E-2,   1.16200,    0.00,    0.00,    0.00,  0.00000,  0.00000,  0.00000,  0.00000,1,1,   0.00,   1,1.0000
     8,    30,'1 ', 4.31000E-3, 5.04000E-2,   0.51400,    0.00,    0.00,    0.00,  0.00000,  0.00000,  0.00000,  0.00000,1,1,   0.00,   1,1.0000
     8,  8000,'1 ', 0.00000E+0, 2.50000E-2,   0.00000,    0.00,    0.00,    0.00,  0.00000,  0.00000,  0.00000,  0.00000,1,1,   0.00,   1,1.0000
     9,    10,'1 ', 2.58000E-3, 3.22000E-2,   1.23000,    0.00,    0.00,    0.00,  0.00000,  0.00000,  0.00000,  0.00000,1,1,   0.00,   1,1.0000
    10, 10000,'1 ', 0.00000E+0, 2.50000E-2,   0.00000,    0.00,    0.00,    0.00,  0.00000,  0.00000,  0.00000,  0.00000,1,1,   0.00,   1,1.0000
    11,    12,'1 ', 5.95000E-3, 1.96000E-2,   0.00502,    0.00,    0.00,    0.00,  0.00000,  0.00000,  0.00000,  0.00000,1,1,   0.00,   1,1.0000
    11,    13,'1 ', 2.22500E-2, 7.31000E-2,   0.01876,    0.00,    0.00,    0.00,  0.00000,  0.00000,  0.00000,  0.00000,1,1,   0.00,   1,1.0000
    12,    14,'1 ', 2.15000E-2, 7.07000E-2,   0.01816,    0.00,    0.00,    0.00,  0.00000,  0.00000,  0.00000,  0.00000,1,1,   0.00,   1,1.0000
    12,    16,'1 ', 2.12000E-2, 8.34000E-2,   0.02140,    0.00,    0.00,    0.00,  0.00000,  0.00000,  0.00000,  0.00000,1,1,   0.00,   1,1.0000
    12,   117,'1 ', 3.29000E-2, 1.40000E-1,   0.03580,    0.00,    0.00,    0.00,  0.00000,  0.00000,  0.00000,  0.00000,1,1,   0.00,   1,1.0000
    12, 12000,'1 ', 0.00000E+0, 2.50000E-2,   0.00000,    0.00,    0.00,    0.00,  0.00000,  0.00000,  0.00000,  0.00000,1,1,   0.00,   1,1.0000
    13,    15,'1 ', 7.44000E-2, 2.44400E-1,   0.06268,    0.00,    0.00,    0.00,  0.00000,  0.00000,  0.00000,  0.00000,1,1,   0.00,   1,1.0000
    14,    15,'1 ', 5.95000E-2, 1.95000E-1,   0.05020,    0.00,    0.00,    0.00,  0.00000,  0.00000,  0.00000,  0.00000,1,1,   0.00,   1,1.0000
    15,    17,'1 ', 1.32000E-2, 4.37000E-2,   0.04440,    0.00,    0.00,    0.00,  0.00000,  0.00000,  0.00000,  0.00000,1,1,   0.00,   1,1.0000
    15,    19,'1 ', 1.20000E-2, 3.94000E-2,   0.01010,    0.00,    0.00,    0.00,  0.00000,  0.00000,  0.00000,  0.00000,1,1,   0.00,   1,1.0000
    15,    33,'1 ', 3.80000E-2, 1.24400E-1,   0.03194,    0.00,    0.00,    0.00,  0.00000,  0.00000,  0.00000,  0.00000,1,1,   0.00,   1,1.0000
    15, 15000,'1 ', 0.00000E+0, 2.50000E-2,   0.00000,    0.00,    0.00,    0.00,  0.00000,  0.00000,  0.00000,  0.00000,1,1,   0.00,   1,1.0000
    16,    17,'1 ', 4.54000E-2, 1.80100E-1,   0.04660,    0.00,    0.00,    0.00,  0.00000,  0.00000,  0.00000,  0.00000,1,1,   0.00,   1,1.0000
    17,    18,'1 ', 1.23000E-2, 5.05000E-2,   0.01298,    0.00,    0.00,    0.00,  0.00000,  0.00000,  0.00000,  0.00000,1,1,   0.00,   1,1.0000
    17,    31,'1 ', 4.74000E-2, 1.56300E-1,   0.03990,    0.00,    0.00,    0.00,  0.00000,  0.00000,  0.00000,  0.00000,1,1,   0.00,   1,1.0000
    17,   113,'1 ', 9.13000E-3, 3.01000E-2,   0.00768,    0.00,    0.00,    0.00,  0.00000,  0.00000,  0.00000,  0.00000,1,1,   0.00,   1,1.0000
    18,    19,'1 ', 1.11900E-2, 4.93000E-2,   0.01142,    0.00,    0.00,    0.00,  0.00000,  0.00000,  0.00000,  0.00000,1,1,   0.00,   1,1.0000
    18, 18000,'1 ', 0.00000E+0, 2.50000E-2,   0.00000,    0.00,    0.00,    0.00,  0.00000,  0.00000,  0.00000,  0.00000,1,1,   0.00,   1,1.0000
    19,    20,'1 ', 2.52000E-2, 1.17000E-1,   0.02980,    0.00,    0.00,    0.00,  0.00000,  0.00000,  0.00000,  0.00000,1,1,   0.00,   1,1.0000
    19,    34,'1 ', 7.52000E-2, 2.47000E-1,   0.06320,    0.00,    0.00,    0.00,  0.00000,  0.00000,  0.00000,  0.00000,1,1,   0.00,   1,1.0000
    19, 19000,'1 ', 0.00000E+0, 2.50000E-2,   0.00000,    0.00,    0.00,    0.00,  0.00000,  0.00000,  0.00000,  0.00000,1,1,   0.00,   1,1.0000
    20,    21,'1 ', 1.83000E-2, 8.49000E-2,   0.02160,    0.00,    0.00,    0.00,  0.00000,  0.00000,  0.00000,  0.00000,1,1,   0.00,   1,1.0000
    21,    22,'1 ', 2.09000E-2, 9.70000E-2,   0.02460,    0.00,    0.00,    0.00,  0.00000,  0.00000,  0.00000,  0.00000,1,1,   0.00,   1,1.0000
    22,    23,'1 ', 3.42000E-2, 1.59000E-1,   0.04040,    0.00,    0.00,    0.00,  0.00000,  0.00000,  0.00000,  0.00000,1,1,   0.00,   1,1.0000
    23,    24,'1 ', 1.35000E-2, 4.92000E-2,   0.04980,    0.00,    0.00,    0.00,  0.00000,  0.00000,  0.00000,  0.00000,1,1,   0.00,   1,1.0000
    23,    25,'1 ', 1.56000E-2, 8.00000E-2,   0.08640,    0.00,    0.00,    0.00,  0.00000,  0.00000,  0.00000,  0.00000,1,1,   0.00,   1,1.0000
    23,    32,'1 ', 3.17000E-2, 1.15300E-1,   0.11730,    0.00,    0.00,    0.00,  0.00000,  0.00000,  0.00000,  0.00000,1,1,   0.00,   1,1.0000
    24,    70,'1 ', 2.21000E-3, 4.11500E-1,   0.10198,    0.00,    0.00,    0.00,  0.00000,  0.00000,  0.00000,  0.00000,1,1,   0.00,   1,1.0000
    24,    72,'1 ', 4.88000E-2, 1.96000E-1,   0.04880,    0.00,    0.00,    0.00,  0.00000,  0.00000,  0.00000,  0.00000,1,1,   0.00,   1,1.0000
    24, 24000,'1 ', 0.00000E+0, 2.50000E-2,   0.00000,    0.00,    0.00,    0.00,  0.00000,  0.00000,  0.00000,  0.00000,1,1,   0.00,   1,1.0000
    25,    27,'1 ', 3.18000E-2, 1.63000E-1,   0.17640,    0.00,    0.00,    0.00,  0.00000,  0.00000,  0.00000,  0.00000,1,1,   0.00,   1,1.0000
    25, 25000,'1 ', 0.00000E+0, 2.50000E-2,   0.00000,    0.00,    0.00,    0.00,  0.00000,  0.00000,  0.00000,  0.00000,1,1,   0.00,   1,1.0000
    26,    30,'1 ', 7.99000E-3, 8.60000E-2,   0.90800,    0.00,    0.00,    0.00,  0.00000,  0.00000,  0.00000,  0.00000,1,1,   0.00,   1,1.0000
    26, 26000,'1 ', 0.00000E+0, 2.50000E-2,   0.00000,    0.00,    0.00,    0.00,  0.00000,  0.00000,  0.00000,  0.00000,1,1,   0.00,   1,1.0000
    27,    28,'1 ', 1.91300E-2, 8.55000E-2,   0.02160,    0.00,    0.00,    0.00,  0.00000,  0.00000,  0.00000,  0.00000,1,1,   0.00,   1,1.0000
    27,    32,'1 ', 2.29000E-2, 7.55000E-2,   0.01926,    0.00,    0.00,    0.00,  0.00000,  0.00000,  0.00000,  0.00000,1,1,   0.00,   1,1.0000
    27,   115,'1 ', 1.64000E-2, 7.41000E-2,   0.01972,    0.00,    0.00,    0.00,  0.00000,  0.00000,  0.00000,  0.00000,1,1,   0.00,   1,1.0000
    27, 27000,'1 ', 0.00000E+0, 2.50000E-2,   0.00000,    0.00,    0.00,    0.00,  0.00000,  0.00000,  0.00000,  0.00000,1,1,   0.00,   1,1.0000
    28,    29,'1 ', 2.37000E-2, 9.43000E-2,   0.02380,    0.00,    0.00,    0.00,  0.00000,  0.00000,  0.00000,  0.00000,1,1,   0.00,   1,1.0000
    29,    31,'1 ', 1.08000E-2, 3.31000E-2,   0.00830,    0.00,    0.00,    0.00,  0.00000,  0.00000,  0.00000,  0.00000,1,1,   0.00,   1,1.0000
    30,    38,'1 ', 4.64000E-3, 5.40000E-2,   0.42200,    0.00,    0.00,    0.00,  0.00000,  0.00000,  0.00000,  0.00000,1,1,   0.00,   1,1.0000
    31,    32,'1 ', 2.98000E-2, 9.85000E-2,   0.02510,    0.00,    0.00,    0.00,  0.00000,  0.00000,  0.00000,  0.00000,1,1,   0.00,   1,1.0000
    31, 31000,'1 ', 0.00000E+0, 2.50000E-2,   0.00000,    0.00,    0.00,    0.00,  0.00000,  0.00000,  0.00000,  0.00000,1,1,   0.00,   1,1.0000
    32,   113,'1 ', 6.15000E-2, 2.03000E-1,   0.05180,    0.00,    0.00,    0.00,  0.00000,  0.00000,  0.00000,  0.00000,1,1,   0.00,   1,1.0000
    32,   114,'1 ', 1.35000E-2, 6.12000E-2,   0.01628,    0.00,    0.00,    0.00,  0.00000,  0.00000,  0.00000,  0.00000,1,1,   0.00,   1,1.0000
    32, 32000,'1 ', 0.00000E+0, 2.50000E-2,   0.00000,    0.00,    0.00,    0.00,  0.00000,  0.00000,  0.00000,  0.00000,1,1,   0.00,   1,1.0000
    33,    37,'1 ', 4.15000E-2, 1.42000E-1,   0.03660,    0.00,    0.00,    0.00,  0.00000,  0.00000,  0.00000,  0.00000,1,1,   0.00,   1,1.0000
    34,    36,'1 ', 8.71000E-3, 2.68000E-2,   0.00568,    0.00,    0.00,    0.00,  0.00000,  0.00000,  0.00000,  0.00000,1,1,   0.00,   1,1.0000
    34,    37,'1 ', 2.56000E-3, 9.40000E-3,   0.00984,    0.00,    0.00,    0.00,  0.00000,  0.00000,  0.00000,  0.00000,1,1,   0.00,   1,1.0000
    34,    43,'1 ', 4.13000E-2, 1.68100E-1,   0.04226,    0.00,    0.00,    0.00,  0.00000,  0.00000,  0.00000,  0.00000,1,1,   0.00,   1,1.0000
    34, 34000,'1 ', 0.00000E+0, 2.50000E-2,   0.00000,    0.00,    0.00,    0.00,  0.00000,  0.00000,  0.00000,  0.00000,1,1,   0.00,   1,1.0000
    35,    36,'1 ', 2.24000E-3, 1.02000E-2,   0.00268,    0.00,    0.00,    0.00,  0.00000,  0.00000,  0.00000,  0.00000,1,1,   0.00,   1,1.0000
    35,    37,'1 ', 1.10000E-2, 4.97000E-2,   0.01318,    0.00,    0.00,    0.00,  0.00000,  0.00000,  0.00000,  0.00000,1,1,   0.00,   1,1.0000
    36, 36000,'1 ', 0.00000E+0, 2.50000E-2,   0.00000,    0.00,    0.00,    0.00,  0.00000,  0.00000,  0.00000,  0.00000,1,1,   0.00,   1,1.0000
    37,    39,'1 ', 3.21000E-2, 1.06000E-1,   0.02700,    0.00,    0.00,    0.00,  0.00000,  0.00000,  0.00000,  0.00000,1,1,   0.00,   1,1.0000
    37,    40,'1 ', 5.93000E-2, 1.68000E-1,   0.04200,    0.00,    0.00,    0.00,  0.00000,  0.00000,  0.00000,  0.00000,1,1,   0.00,   1,1.0000
    38,    65,'1 ', 9.01000E-3, 9.86000E-2,   1.04600,    0.00,    0.00,    0.00,  0.00000,  0.00000,  0.00000,  0.00000,1,1,   0.00,   1,1.0000
    39,    40,'1 ', 1.84000E-2, 6.05000E-2,   0.01552,    0.00,    0.00,    0.00,  0.00000,  0.00000,  0.00000,  0.00000,1,1,   0.00,   1,1.0000
    40,    41,'1 ', 1.45000E-2, 4.87000E-2,   0.01222,    0.00,    0.00,    0.00,  0.00000,  0.00000,  0.00000,  0.00000,1,1,   0.00,   1,1.0000
    40,    42,'1 ', 5.55000E-2, 1.83000E-1,   0.04660,    0.00,    0.00,    0.00,  0.00000,  0.00000,  0.00000,  0.00000,1,1,   0.00,   1,1.0000
    40, 40000,'1 ', 0.00000E+0, 2.50000E-2,   0.00000,    0.00,    0.00,    0.00,  0.00000,  0.00000,  0.00000,  0.00000,1,1,   0.00,   1,1.0000
    41,    42,'1 ', 4.10000E-2, 1.35000E-1,   0.03440,    0.00,    0.00,    0.00,  0.00000,  0.00000,  0.00000,  0.00000,1,1,   0.00,   1,1.0000
    42,    49,'1 ', 7.15000E-2, 3.23000E-2,   0.08600,    0.00,    0.00,    0.00,  0.00000,  0.00000,  0.00000,  0.00000,1,1,   0.00,   1,1.0000
    42,    49,'2 ', 7.15000E-2, 3.23000E-1,   0.08600,    0.00,    0.00,    0.00,  0.00000,  0.00000,  0.00000,  0.00000,1,1,   0.00,   1,1.0000
    42, 42000,'1 ', 0.00000E+0, 2.50000E-2,   0.00000,    0.00,    0.00,    0.00,  0.00000,  0.00000,  0.00000,  0.00000,1,1,   0.00,   1,1.0000
    43,    44,'1 ', 6.08000E-2, 2.45400E-1,   0.06068,    0.00,    0.00,    0.00,  0.00000,  0.00000,  0.00000,  0.00000,1,1,   0.00,   1,1.0000
    44,    45,'1 ', 2.24000E-2, 9.01000E-2,   0.02240,    0.00,    0.00,    0.00,  0.00000,  0.00000,  0.00000,  0.00000,1,1,   0.00,   1,1.0000
    45,    46,'1 ', 4.00000E-2, 1.35600E-1,   0.03320,    0.00,    0.00,    0.00,  0.00000,  0.00000,  0.00000,  0.00000,1,1,   0.00,   1,1.0000
    45,    49,'1 ', 6.84000E-2, 1.86000E-1,   0.04440,    0.00,    0.00,    0.00,  0.00000,  0.00000,  0.00000,  0.00000,1,1,   0.00,   1,1.0000
    46,    47,'1 ', 3.80000E-2, 1.27000E-1,   0.03160,    0.00,    0.00,    0.00,  0.00000,  0.00000,  0.00000,  0.00000,1,1,   0.00,   1,1.0000
    46,    48,'1 ', 6.01000E-2, 1.89000E-1,   0.04720,    0.00,    0.00,    0.00,  0.00000,  0.00000,  0.00000,  0.00000,1,1,   0.00,   1,1.0000
    46, 46000,'1 ', 0.00000E+0, 2.50000E-2,   0.00000,    0.00,    0.00,    0.00,  0.00000,  0.00000,  0.00000,  0.00000,1,1,   0.00,   1,1.0000
    47,    49,'1 ', 1.91000E-2, 6.25000E-2,   0.01604,    0.00,    0.00,    0.00,  0.00000,  0.00000,  0.00000,  0.00000,1,1,   0.00,   1,1.0000
    47,    69,'1 ', 8.44000E-2, 2.77800E-1,   0.07092,    0.00,    0.00,    0.00,  0.00000,  0.00000,  0.00000,  0.00000,1,1,   0.00,   1,1.0000
    48,    49,'1 ', 1.79000E-2, 5.05000E-2,   0.01258,    0.00,    0.00,    0.00,  0.00000,  0.00000,  0.00000,  0.00000,1,1,   0.00,   1,1.0000
    49,    50,'1 ', 2.67000E-2, 7.52000E-2,   0.01874,    0.00,    0.00,    0.00,  0.00000,  0.00000,  0.00000,  0.00000,1,1,   0.00,   1,1.0000
    49,    51,'1 ', 4.86000E-2, 1.37000E-1,   0.03420,    0.00,    0.00,    0.00,  0.00000,  0.00000,  0.00000,  0.00000,1,1,   0.00,   1,1.0000
    49,    54,'1 ', 7.30000E-2, 2.89000E-1,   0.07380,    0.00,    0.00,    0.00,  0.00000,  0.00000,  0.00000,  0.00000,1,1,   0.00,   1,1.0000
    49,    54,'2 ', 8.69000E-2, 2.91000E-1,   0.07300,    0.00,    0.00,    0.00,  0.00000,  0.00000,  0.00000,  0.00000,1,1,   0.00,   1,1.0000
    49,    66,'1 ', 1.80000E-2, 9.19000E-2,   0.02480,    0.00,    0.00,    0.00,  0.00000,  0.00000,  0.00000,  0.00000,1,2,   0.00,   1,1.0000
    49,    66,'2 ', 1.80000E-2, 9.19000E-2,   0.02480,    0.00,    0.00,    0.00,  0.00000,  0.00000,  0.00000,  0.00000,1,1,   0.00,   1,1.0000
    49,    69,'1 ', 9.85000E-2, 3.24000E-1,   0.08280,    0.00,    0.00,    0.00,  0.00000,  0.00000,  0.00000,  0.00000,1,1,   0.00,   1,1.0000
    49, 49000,'1 ', 0.00000E+0, 2.50000E-2,   0.00000,    0.00,    0.00,    0.00,  0.00000,  0.00000,  0.00000,  0.00000,1,1,   0.00,   1,1.0000
    50,    57,'1 ', 4.74000E-2, 1.34000E-1,   0.03320,    0.00,    0.00,    0.00,  0.00000,  0.00000,  0.00000,  0.00000,1,1,   0.00,   1,1.0000
    51,    52,'1 ', 2.03000E-2, 5.88000E-2,   0.01396,    0.00,    0.00,    0.00,  0.00000,  0.00000,  0.00000,  0.00000,1,1,   0.00,   1,1.0000
    51,    58,'1 ', 2.55000E-2, 7.19000E-2,   0.01788,    0.00,    0.00,    0.00,  0.00000,  0.00000,  0.00000,  0.00000,1,1,   0.00,   1,1.0000
    52,    53,'1 ', 4.05000E-2, 1.63500E-1,   0.04058,    0.00,    0.00,    0.00,  0.00000,  0.00000,  0.00000,  0.00000,1,1,   0.00,   1,1.0000
    53,    54,'1 ', 2.63000E-2, 1.22000E-1,   0.03100,    0.00,    0.00,    0.00,  0.00000,  0.00000,  0.00000,  0.00000,1,1,   0.00,   1,1.0000
    54,    55,'1 ', 1.69000E-2, 7.07000E-2,   0.02020,    0.00,    0.00,    0.00,  0.00000,  0.00000,  0.00000,  0.00000,1,1,   0.00,   1,1.0000
    54,    56,'1 ', 2.75000E-3, 9.55000E-3,   0.00732,    0.00,    0.00,    0.00,  0.00000,  0.00000,  0.00000,  0.00000,1,1,   0.00,   1,1.0000
    54,    59,'1 ', 5.03000E-2, 2.29300E-1,   0.05980,    0.00,    0.00,    0.00,  0.00000,  0.00000,  0.00000,  0.00000,1,1,   0.00,   1,1.0000
    54, 54000,'1 ', 0.00000E+0, 2.50000E-2,   0.00000,    0.00,    0.00,    0.00,  0.00000,  0.00000,  0.00000,  0.00000,1,1,   0.00,   1,1.0000
    55,    56,'1 ', 4.88000E-3, 1.51000E-2,   0.00374,    0.00,    0.00,    0.00,  0.00000,  0.00000,  0.00000,  0.00000,1,1,   0.00,   1,1.0000
    55,    59,'1 ', 4.73900E-2, 2.15800E-1,   0.05646,    0.00,    0.00,    0.00,  0.00000,  0.00000,  0.00000,  0.00000,1,1,   0.00,   1,1.0000
    55, 55000,'1 ', 0.00000E+0, 2.50000E-2,   0.00000,    0.00,    0.00,    0.00,  0.00000,  0.00000,  0.00000,  0.00000,1,1,   0.00,   1,1.0000
    56,    57,'1 ', 3.43000E-2, 9.66000E-2,   0.02420,    0.00,    0.00,    0.00,  0.00000,  0.00000,  0.00000,  0.00000,1,1,   0.00,   1,1.0000
    56,    58,'1 ', 3.43000E-2, 9.66000E-2,   0.02420,    0.00,    0.00,    0.00,  0.00000,  0.00000,  0.00000,  0.00000,1,1,   0.00,   1,1.0000
    56,    59,'1 ', 8.25000E-2, 2.51000E-1,   0.05690,    0.00,    0.00,    0.00,  0.00000,  0.00000,  0.00000,  0.00000,1,1,   0.00,   1,1.0000
    56,    59,'2 ', 8.03000E-2, 2.39000E-1,   0.05360,    0.00,    0.00,    0.00,  0.00000,  0.00000,  0.00000,  0.00000,1,1,   0.00,   1,1.0000
    56, 56000,'1 ', 0.00000E+0, 2.50000E-2,   0.00000,    0.00,    0.00,    0.00,  0.00000,  0.00000,  0.00000,  0.00000,1,1,   0.00,   1,1.0000
    59,    60,'1 ', 3.17000E-2, 1.45000E-1,   0.03760,    0.00,    0.00,    0.00,  0.00000,  0.00000,  0.00000,  0.00000,1,1,   0.00,   1,1.0000
    59,    61,'1 ', 3.28000E-2, 1.50000E-1,   0.03880,    0.00,    0.00,    0.00,  0.00000,  0.00000,  0.00000,  0.00000,1,1,   0.00,   1,1.0000
    59, 59000,'1 ', 0.00000E+0, 2.50000E-2,   0.00000,    0.00,    0.00,    0.00,  0.00000,  0.00000,  0.00000,  0.00000,1,1,   0.00,   1,1.0000
    60,    61,'1 ', 2.64000E-3, 1.35000E-2,   0.01456,    0.00,    0.00,    0.00,  0.00000,  0.00000,  0.00000,  0.00000,1,1,   0.00,   1,1.0000
    60,    62,'1 ', 1.23000E-2, 5.61000E-2,   0.01468,    0.00,    0.00,    0.00,  0.00000,  0.00000,  0.00000,  0.00000,1,1,   0.00,   1,1.0000
    61,    62,'1 ', 8.24000E-3, 3.76000E-2,   0.00980,    0.00,    0.00,    0.00,  0.00000,  0.00000,  0.00000,  0.00000,1,1,   0.00,   1,1.0000
    61, 61000,'1 ', 0.00000E+0, 2.50000E-2,   0.00000,    0.00,    0.00,    0.00,  0.00000,  0.00000,  0.00000,  0.00000,1,1,   0.00,   1,1.0000
    62,    66,'1 ', 4.82000E-2, 2.18000E-1,   0.05780,    0.00,    0.00,    0.00,  0.00000,  0.00000,  0.00000,  0.00000,1,1,   0.00,   1,1.0000
    62,    67,'1 ', 2.58000E-2, 1.17000E-1,   0.03100,    0.00,    0.00,    0.00,  0.00000,  0.00000,  0.00000,  0.00000,1,1,   0.00,   1,1.0000
    62, 62000,'1 ', 0.00000E+0, 2.50000E-2,   0.00000,    0.00,    0.00,    0.00,  0.00000,  0.00000,  0.00000,  0.00000,1,1,   0.00,   1,1.0000
    63,    64,'1 ', 1.72000E-3, 2.00000E-2,   0.21600,    0.00,    0.00,    0.00,  0.00000,  0.00000,  0.00000,  0.00000,1,1,   0.00,   1,1.0000
    64,    65,'1 ', 2.69000E-3, 3.02000E-2,   0.38000,    0.00,    0.00,    0.00,  0.00000,  0.00000,  0.00000,  0.00000,1,1,   0.00,   1,1.0000
    65,    68,'1 ', 1.38000E-3, 1.60000E-2,   0.63800,    0.00,    0.00,    0.00,  0.00000,  0.00000,  0.00000,  0.00000,1,1,   0.00,   1,1.0000
    65, 65000,'1 ', 0.00000E+0, 2.50000E-2,   0.00000,    0.00,    0.00,    0.00,  0.00000,  0.00000,  0.00000,  0.00000,1,1,   0.00,   1,1.0000
    66,    67,'1 ', 2.24000E-2, 1.01500E-1,   0.02682,    0.00,    0.00,    0.00,  0.00000,  0.00000,  0.00000,  0.00000,1,1,   0.00,   1,1.0000
    66, 66000,'1 ', 0.00000E+0, 2.50000E-2,   0.00000,    0.00,    0.00,    0.00,  0.00000,  0.00000,  0.00000,  0.00000,1,1,   0.00,   1,1.0000
    68,    81,'1 ', 1.75000E-3, 2.02000E-2,   0.80800,    0.00,    0.00,    0.00,  0.00000,  0.00000,  0.00000,  0.00000,1,1,   0.00,   1,1.0000
    68,   116,'1 ', 3.40000E-4, 4.05000E-3,   0.16400,    0.00,    0.00,    0.00,  0.00000,  0.00000,  0.00000,  0.00000,1,1,   0.00,   1,1.0000
    69,    70,'1 ', 3.00000E-2, 1.27000E-1,   0.12200,    0.00,    0.00,    0.00,  0.00000,  0.00000,  0.00000,  0.00000,1,1,   0.00,   1,1.0000
    69,    75,'1 ', 4.05000E-2, 1.22000E-1,   0.12400,    0.00,    0.00,    0.00,  0.00000,  0.00000,  0.00000,  0.00000,1,1,   0.00,   1,1.0000
    69,    77,'1 ', 3.09000E-2, 1.01000E-1,   0.10380,    0.00,    0.00,    0.00,  0.00000,  0.00000,  0.00000,  0.00000,1,1,   0.00,   1,1.0000
    69, 69000,'1 ', 0.00000E+0, 2.50000E-2,   0.00000,    0.00,    0.00,    0.00,  0.00000,  0.00000,  0.00000,  0.00000,1,1,   0.00,   1,1.0000
    70,    71,'1 ', 8.82000E-3, 3.55000E-2,   0.00878,    0.00,    0.00,    0.00,  0.00000,  0.00000,  0.00000,  0.00000,1,1,   0.00,   1,1.0000
    70,    74,'1 ', 4.01000E-2, 1.32300E-1,   0.03368,    0.00,    0.00,    0.00,  0.00000,  0.00000,  0.00000,  0.00000,1,1,   0.00,   1,1.0000
    70,    75,'1 ', 4.28000E-2, 1.41000E-1,   0.03600,    0.00,    0.00,    0.00,  0.00000,  0.00000,  0.00000,  0.00000,1,1,   0.00,   1,1.0000
    70, 70000,'1 ', 0.00000E+0, 2.50000E-2,   0.00000,    0.00,    0.00,    0.00,  0.00000,  0.00000,  0.00000,  0.00000,1,1,   0.00,   1,1.0000
    71,    72,'1 ', 4.46000E-2, 1.80000E-1,   0.04444,    0.00,    0.00,    0.00,  0.00000,  0.00000,  0.00000,  0.00000,1,1,   0.00,   1,1.0000
    71,    73,'1 ', 8.66000E-3, 4.54000E-2,   0.01178,    0.00,    0.00,    0.00,  0.00000,  0.00000,  0.00000,  0.00000,1,1,   0.00,   1,1.0000
    72, 72000,'1 ', 0.00000E+0, 2.50000E-2,   0.00000,    0.00,    0.00,    0.00,  0.00000,  0.00000,  0.00000,  0.00000,1,1,   0.00,   1,1.0000
    73, 73000,'1 ', 0.00000E+0, 2.50000E-2,   0.00000,    0.00,    0.00,    0.00,  0.00000,  0.00000,  0.00000,  0.00000,1,1,   0.00,   1,1.0000
    74,    75,'1 ', 1.23000E-2, 4.06000E-2,   0.01034,    0.00,    0.00,    0.00,  0.00000,  0.00000,  0.00000,  0.00000,1,1,   0.00,   1,1.0000
    74, 74000,'1 ', 0.00000E+0, 2.50000E-2,   0.00000,    0.00,    0.00,    0.00,  0.00000,  0.00000,  0.00000,  0.00000,1,1,   0.00,   1,1.0000
    75,    77,'1 ', 6.01000E-2, 1.99900E-1,   0.04978,    0.00,    0.00,    0.00,  0.00000,  0.00000,  0.00000,  0.00000,1,1,   0.00,   1,1.0000
    75,   118,'1 ', 1.45000E-2, 4.81000E-2,   0.01198,    0.00,    0.00,    0.00,  0.00000,  0.00000,  0.00000,  0.00000,1,1,   0.00,   1,1.0000
    76,    77,'1 ', 4.44000E-2, 1.48000E-1,   0.03680,    0.00,    0.00,    0.00,  0.00000,  0.00000,  0.00000,  0.00000,1,1,   0.00,   1,1.0000
    76,   118,'1 ', 1.64000E-2, 5.44000E-2,   0.01356,    0.00,    0.00,    0.00,  0.00000,  0.00000,  0.00000,  0.00000,1,1,   0.00,   1,1.0000
...